src/tests/data/grids/seriesX_commonZ.dgs
********************************************************************************
*
* DIgSILENT (R) DGS Export V1.8.4
* Copyright 1997-2026 DIgSILENT GmbH. All rights reserved.
*
* DIgSILENT (C) PowerFactory V25.0.3.0
*
* Date:     03/30/2026 16:41
* Project:  test_parse_series_common_impedance (Study Case: Study Case)
*
********************************************************************************


$$General;FID(a:40);Descr(a:40);Val(a:255)
********************************************************************************
*  General Information
*
*  FID: Unique identifier for DGS file
*  Descr: Setting
*  Val: Value
********************************************************************************
  1;Version;7.0


$$ElmLod;FID(a:40);OP(a:1);loc_name(a:80);fold_id(p);typ_id(p);mode_inp(a:6);slini(r);plini(r);qlini(r);coslini(r);pf_recap(i);scale0(r);i_scale(i);outserv(i);classif(a:40)
********************************************************************************
*  General Load
*
*  FID: Unique identifier for DGS file
*  OP: Operation (C=create, U=update, D=delete, M=merge, I=ignore)
*  loc_name: Name
*  fold_id: In Folder
*  typ_id: Type in TypLod,TypLodind,TypLodwecc
*  mode_inp: Input Mode
*  slini: Operating Point: Apparent Power in MVA
*  plini: Operating Point: Active Power in MW
*  qlini: Operating Point: Reactive Power in Mvar
*  coslini: Operating Point: Power Factor
*  pf_recap: Operating Point: Power Factor:ind.:cap.
*  scale0: Operating Point: Scaling Factor
*  i_scale: Operating Point: Adjusted by Load Scaling
*  outserv: Out of Service
*  classif: Load Classification:Agricultural:Domestic:Commercial:Industrial
********************************************************************************
  2;C;General Load;3;;DEF;11,18034;10;5;0,894427;0;1;1;0;


$$ElmNet;FID(a:40);OP(a:1);loc_name(a:80);fold_id(p);frnom(r);pDiagram(p)
********************************************************************************
*  Grid
*
*  FID: Unique identifier for DGS file
*  OP: Operation (C=create, U=update, D=delete, M=merge, I=ignore)
*  loc_name: Name
*  fold_id: In Folder
*  frnom: Nominal Frequency in Hz
*  pDiagram: Diagram in IntGrfnet
********************************************************************************
  3;C;Grid;;50;25


$$ElmSind;FID(a:40);OP(a:1);loc_name(a:80);fold_id(p);ucn(r);Sn(r);uk(r);Pcu(r);outserv(i)
********************************************************************************
*  Series Reactor
*
*  FID: Unique identifier for DGS file
*  OP: Operation (C=create, U=update, D=delete, M=merge, I=ignore)
*  loc_name: Name
*  fold_id: In Folder
*  ucn: Ratings: Rated Voltage in kV
*  Sn: Ratings: Rated Power in MVA
*  uk: Impedance: Short-Circuit Voltage uk in %
*  Pcu: Impedance: Copper Losses in kW
*  outserv: Out of Service
********************************************************************************
  4;C;Series Reactor;3;33;100;25;250;0


$$ElmTerm;FID(a:40);OP(a:1);loc_name(a:80);fold_id(p);typ_id(p);systype(i);iUsage(i);uknom(r);unknom(r);iminus(i);outserv(i);GPSlat(r);GPSlon(r);vtarget(r)
********************************************************************************
*  Terminal
*
*  FID: Unique identifier for DGS file
*  OP: Operation (C=create, U=update, D=delete, M=merge, I=ignore)
*  loc_name: Name
*  fold_id: In Folder
*  typ_id: Type in TypBar
*  systype: System Type:AC:DC:AC/BI
*  iUsage: Usage:Busbar:Junction Node:Internal Node
*  uknom: Nominal Voltage: Line-Line in kV
*  unknom: Nominal Voltage: Line-Ground in kV
*  iminus: Nominal Voltage: DC-Polarity:positive (+):negative (-):neutral
*  outserv: Out of Service
*  GPSlat: Geographical Position: Latitude / Northing in deg
*  GPSlon: Geographical Position: Longitude / Easting in deg
*  vtarget: Voltage Control: Target Voltage in p.u.
********************************************************************************
  5;C;Bus EG;3;;0;0;33;19,05256;0;0;0;0;1
  6;C;Bus Load;3;;0;0;33;19,05256;0;0;0;0;1
  7;C;Bus SC;3;;0;0;33;19,05256;0;0;0;0;1


$$ElmXnet;FID(a:40);OP(a:1);loc_name(a:80);fold_id(p);snss(r);rntxn(r);z2tz1(r);snssmin(r);rntxnmin(r);z2tz1min(r);chr_name(a:40);bustp(a:2);pgini(r);qgini(r);phiini(r);usetp(r);outserv(i);Kpf(r);K(r);cmax(r);xd(r);xq(r)
********************************************************************************
*  External Grid
*
*  FID: Unique identifier for DGS file
*  OP: Operation (C=create, U=update, D=delete, M=merge, I=ignore)
*  loc_name: Name
*  fold_id: In Folder
*  snss: Max. Values: Short-Circuit Power Sk''max in MVA
*  rntxn: Max. Values: R/X Ratio (max.)
*  z2tz1: Max. Values: Z2/Z1 max.
*  snssmin: Min. Values: Short-Circuit Power Sk''min in MVA
*  rntxnmin: Min. Values: R/X Ratio (min.)
*  z2tz1min: Min. Values: Z2/Z1 min.
*  chr_name: Characteristic Name
*  bustp: Bus Type:PQ:PV:SL
*  pgini: Operation Point: Active Power in MW
*  qgini: Operation Point: Reactive Power in Mvar
*  phiini: Operation Point: Angle in deg
*  usetp: Operation Point: Voltage Setpoint in p.u.
*  outserv: Out of Service
*  Kpf: Operation Point: Primary Frequency Bias in MW/Hz
*  K: Operation Point: Secondary Frequency Bias in MW/Hz
*  cmax: Max. Values: c-Factor (max.)
*  xd: Synchronous Reactances: xd in p.u.
*  xq: Synchronous Reactances: xq in p.u.
********************************************************************************
  8;C;External Grid;3;10000;0;1;8000;0,1;1;;SL;0;0;0;1;0;0;0;1;0,2;0,2


$$ElmZpu;FID(a:40);OP(a:1);loc_name(a:80);fold_id(p);Sn(r);ratfac(r);r_pu(r);x_pu(r);for_name(a:100);outserv(i)
********************************************************************************
*  Common Impedance
*
*  FID: Unique identifier for DGS file
*  OP: Operation (C=create, U=update, D=delete, M=merge, I=ignore)
*  loc_name: Name
*  fold_id: In Folder
*  Sn: Rated Power in MVA
*  ratfac: Rating Factor
*  r_pu: Positive-Sequence Impedance i-j: Real Part in p.u.
*  x_pu: Positive-Sequence Impedance i-j: Imaginary Part in p.u.
*  for_name: Foreign Key
*  outserv: Out of Service
********************************************************************************
  9;C;Common Impedance;3;20;1;0,01;0,1;;0


$$IntFolder;FID(a:40);OP(a:1);loc_name(a:80);fold_id(p)
********************************************************************************
*  Folder
*
*  FID: Unique identifier for DGS file
*  OP: Operation (C=create, U=update, D=delete, M=merge, I=ignore)
*  loc_name: Name
*  fold_id: In Folder
********************************************************************************
  10;C;Layers;25
  11;C;Settings;25


$$IntGrf;FID(a:40);OP(a:1);loc_name(a:80);fold_id(p);iCol(i);iVis(i);iLevel(i);rCenterX(r);rCenterY(r);sSymNam(a:80);pDataObj(p);iRot(i);rSizeX(r);rSizeY(r)
********************************************************************************
*  Graphical Net Object
*
*  FID: Unique identifier for DGS file
*  OP: Operation (C=create, U=update, D=delete, M=merge, I=ignore)
*  loc_name: Name
*  fold_id: In Folder
*  iCol: Colour
*  iVis: Visible
*  iLevel: Layer
*  rCenterX: X-Position
*  rCenterY: Y-Position
*  sSymNam: Symbol Name
*  pDataObj: Net Data Object
*  iRot: Rotation
*  rSizeX: X-Size
*  rSizeY: Y-Size
********************************************************************************
  12;C;Graphical Net Object1;25;-16777216;1;1;144,375;131,25;TermStrip;5;0;1;1
  13;C;Graphical Net Object2;25;-16777216;1;1;144,375;87,5;TermStrip;7;0;1;1
  14;C;Graphical Net Object3;25;-16777216;1;1;144,375;43,75;TermStrip;6;0;1;1
  15;C;Graphical Net Object4;25;-16777216;1;1;144,375;148,75;d_net;8;180;1;1
  16;C;Graphical Net Object5;25;-16777216;1;1;144,375;26,25;d_load;2;0;1;1
  17;C;Graphical Net Object7(1);25;-16777216;1;1;144,375;109,375;d_ser_rea;4;0;1;1
  18;C;Graphical Net Object7;25;-16777216;1;1;144,375;65,625;Zpu;9;0;1;1


$$IntGrfcon;FID(a:40);OP(a:1);loc_name(a:80);fold_id(p);rX:SIZEROW(i);rX:0(r);rX:1(r);rY:SIZEROW(i);rY:0(r);rY:1(r);iDatConNr(i)
********************************************************************************
*  Graphical Connection
*
*  FID: Unique identifier for DGS file
*  OP: Operation (C=create, U=update, D=delete, M=merge, I=ignore)
*  loc_name: Name
*  fold_id: In Folder
*  rX:SIZEROW: Number of rows for attribute 'rX'
*  rX: X
*  rY:SIZEROW: Number of rows for attribute 'rY'
*  rY: Y
*  iDatConNr: Internal Connection Number
********************************************************************************
  19;C;GCO_1;15;2;144,375;144,375;2;144,375;131,25;0
  20;C;GCO_1;16;2;144,375;144,375;2;30,625;43,75;0
  21;C;GCO_1;17;2;144,375;144,375;2;113,75;131,25;0
  22;C;GCO_2;17;2;144,375;144,375;2;105;87,5;1
  23;C;GCO_1;18;2;144,375;144,375;2;70;87,5;0
  24;C;GCO_2;18;2;144,375;144,375;2;61,25;43,75;1


$$IntGrfnet;FID(a:40);OP(a:1);loc_name(a:80);fold_id(p);snap_on(i);ortho_on(i);pDataFolder(p)
********************************************************************************
*  Graphic
*
*  FID: Unique identifier for DGS file
*  OP: Operation (C=create, U=update, D=delete, M=merge, I=ignore)
*  loc_name: Name
*  fold_id: In Folder
*  snap_on: Drawing aids: Snap elements to grid
*  ortho_on: Drawing aids: Line routing
*  pDataFolder: Target folder for network elements in ElmNet,BlkDef,IntFolder,ElmSubstat,ElmTrfstat,ElmSite,ElmBranch,ElmSubmodel,ElmFolder,IntTemplate
********************************************************************************
  25;C;Grid;;1;1;3


$$StaCubic;FID(a:40);OP(a:1);loc_name(a:80);fold_id(p);obj_bus(i);obj_id(p);it2p1(i);it2p2(i);it2p3(i)
********************************************************************************
*  Cubicle
*
*  FID: Unique identifier for DGS file
*  OP: Operation (C=create, U=update, D=delete, M=merge, I=ignore)
*  loc_name: Name
*  fold_id: In Folder
*  obj_bus: Bus Index
*  obj_id: Connected with in Elm*,RelFuse,StaSua*
*  it2p1: Phase 1
*  it2p2: Phase 2
*  it2p3: Phase 3
********************************************************************************
  26;C;Cub_1;5;0;8;0;1;2
  27;C;Cub_2;5;0;4;0;1;2
  28;C;Cub_1;6;0;2;0;1;2
  29;C;Cub_2;6;1;9;0;1;2
  30;C;Cub_3;7;1;4;0;1;2
  31;C;Cub_4;7;0;9;0;1;2


$$StaSwitch;FID(a:40);OP(a:1);loc_name(a:80);fold_id(p);on_off(i);typ_id(p);aUsage(a)
********************************************************************************
*  Switch
*
*  FID: Unique identifier for DGS file
*  OP: Operation (C=create, U=update, D=delete, M=merge, I=ignore)
*  loc_name: Name
*  fold_id: in Cubicle
*  on_off: Closed
*  typ_id: Type in TypSwitch
*  aUsage: Switch Type
********************************************************************************
  32;C;Switch;26;1;;cbk
  33;C;Switch;27;1;;cbk
  34;C;Switch;28;1;;cbk
  35;C;Switch;29;1;;cbk
  36;C;Switch;30;1;;cbk
  37;C;Switch;31;1;;cbk
